Version 4
SHEET 1 1788 2192
WIRE 784 480 544 480
WIRE 880 480 784 480
WIRE 544 496 544 480
WIRE 784 528 784 480
WIRE -80 608 -96 608
WIRE 80 608 -80 608
WIRE 272 608 160 608
WIRE 544 608 544 576
WIRE 544 608 448 608
WIRE 784 656 784 592
WIRE -80 704 -96 704
WIRE 272 704 -80 704
WIRE 544 704 448 704
WIRE 544 816 544 704
WIRE 784 816 784 736
WIRE 784 816 544 816
WIRE 784 864 784 816
WIRE 784 928 544 928
WIRE 880 928 784 928
WIRE 544 944 544 928
WIRE 784 976 784 928
WIRE -80 1056 -96 1056
WIRE 80 1056 -80 1056
WIRE 272 1056 160 1056
WIRE 544 1056 544 1024
WIRE 544 1056 448 1056
WIRE 784 1104 784 1040
WIRE -80 1152 -96 1152
WIRE 272 1152 -80 1152
WIRE 544 1152 448 1152
WIRE 544 1264 544 1152
WIRE 784 1264 784 1184
WIRE 784 1264 544 1264
WIRE 784 1312 784 1264
WIRE -96 1536 -160 1536
WIRE 64 1536 0 1536
WIRE 928 1552 448 1552
WIRE 1008 1552 928 1552
WIRE 448 1600 448 1552
WIRE -736 1632 -768 1632
WIRE -624 1632 -736 1632
WIRE -544 1632 -624 1632
WIRE -368 1632 -464 1632
WIRE -304 1632 -336 1632
WIRE -256 1632 -272 1632
WIRE -160 1632 -160 1536
WIRE -96 1632 -160 1632
WIRE 64 1632 64 1536
WIRE 64 1632 0 1632
WIRE -352 1648 -368 1632
WIRE -352 1648 -336 1632
WIRE -288 1648 -304 1632
WIRE -288 1648 -272 1632
WIRE 448 1744 448 1680
WIRE 544 1744 448 1744
WIRE 672 1744 624 1744
WIRE 720 1744 704 1744
WIRE 928 1744 928 1552
WIRE 1008 1744 1008 1552
WIRE 688 1760 672 1744
WIRE 688 1760 704 1744
WIRE -288 1776 -288 1648
WIRE 64 1776 64 1632
WIRE 80 1776 64 1776
WIRE -624 1792 -624 1632
WIRE -352 1792 -352 1648
WIRE 96 1792 80 1776
WIRE 96 1792 112 1776
WIRE 128 1792 112 1776
WIRE 336 1792 320 1792
WIRE 448 1792 448 1744
WIRE 448 1792 368 1792
WIRE 352 1808 336 1792
WIRE 352 1808 368 1792
WIRE 688 1872 688 1760
WIRE 80 1888 96 1872
WIRE 80 1888 64 1888
WIRE 112 1888 96 1872
WIRE 128 1888 112 1888
WIRE 336 1888 352 1872
WIRE 336 1888 320 1888
WIRE 368 1888 352 1872
WIRE 448 1888 368 1888
WIRE -352 2016 -352 1856
WIRE -288 2016 -288 1872
WIRE 688 2016 688 1936
WIRE -752 2032 -784 2032
WIRE -624 2032 -624 1872
WIRE -624 2032 -752 2032
WIRE -544 2032 -624 2032
WIRE -368 2032 -352 2016
WIRE -368 2032 -464 2032
WIRE -336 2032 -352 2016
WIRE -304 2032 -288 2016
WIRE -304 2032 -336 2032
WIRE -272 2032 -288 2016
WIRE -160 2032 -176 2032
WIRE -96 2032 -160 2032
WIRE 64 2032 64 1888
WIRE 64 2032 0 2032
WIRE 448 2032 448 1888
WIRE 672 2032 688 2016
WIRE 672 2032 448 2032
WIRE 704 2032 688 2016
WIRE 928 2032 928 1808
WIRE 928 2032 704 2032
WIRE 976 2032 928 2032
WIRE 1008 2032 1008 1808
WIRE 1008 2032 976 2032
WIRE 976 2064 976 2032
WIRE -160 2128 -160 2032
WIRE -96 2128 -160 2128
WIRE 64 2128 64 2032
WIRE 64 2128 0 2128
FLAG 976 2064 0
FLAG -736 1632 Input_
FLAG 720 1744 Arduino_Pin2
FLAG -752 2032 Input
FLAG 784 864 0
FLAG 880 480 Arduino_Pin12
FLAG -80 608 Output
FLAG -80 704 Output
FLAG 784 1312 0
FLAG 880 928 Arduino_Pin6
FLAG -80 1056 Error_out
FLAG -80 1152 Error_out
SYMBOL cap 672 1872 R0
SYMATTR InstName C3
SYMATTR Value 1n
SYMBOL cap 992 1744 R0
SYMATTR InstName C5
SYMATTR Value 470µ
SYMBOL CurDiode -48 1632 R0
WINDOW 3 -57 35 Left 2
WINDOW 0 -57 63 Left 2
SYMATTR Value #807897
SYMATTR InstName CRD_2
SYMATTR Prefix X
SYMBOL CurDiode -48 1536 R0
WINDOW 3 -55 30 Left 2
WINDOW 0 -55 58 Left 2
SYMATTR Value #807897
SYMATTR InstName CRD_1
SYMATTR Prefix X
SYMBOL CurDiode -48 2032 R0
WINDOW 3 -63 51 Left 2
WINDOW 0 -64 26 Left 2
SYMATTR Value #807897
SYMATTR InstName CRD_3
SYMATTR Prefix X
SYMBOL CurDiode -48 2128 R0
WINDOW 3 -68 47 Left 2
WINDOW 0 -68 26 Left 2
SYMATTR Value #807897
SYMATTR InstName CRD_4
SYMATTR Prefix X
SYMBOL cap 336 1808 R0
SYMATTR InstName C2
SYMATTR Value 1n
SYMBOL cap -336 1792 M0
SYMATTR InstName C1
SYMATTR Value 470p
SYMBOL cap 944 1744 M0
SYMATTR InstName C4
SYMATTR Value 100p
SYMBOL WE-TMSB -224 2032 R180
WINDOW 38 0 26 Invisible 2
SYMATTR SpiceModel 0603_7426926222_22ohm
SYMATTR InstName L2
SYMBOL WE-TMSB -208 1632 R0
WINDOW 38 0 26 Invisible 2
SYMATTR SpiceModel 0603_7426926222_22ohm
SYMATTR InstName L1
SYMBOL Misc\\EuropeanResistor -608 1776 M0
SYMATTR InstName R6
SYMATTR Value 220k
SYMBOL Misc\\EuropeanResistor -448 1616 R90
WINDOW 0 5 56 VBottom 2
WINDOW 3 27 56 VTop 2
SYMATTR InstName R1
SYMATTR Value 17R8 #326267
SYMBOL Misc\\EuropeanResistor -448 2016 R90
WINDOW 0 5 56 VBottom 2
WINDOW 3 27 56 VTop 2
SYMATTR InstName R2
SYMATTR Value 17R8 #326267
SYMBOL Misc\\EuropeanResistor 464 1696 R180
WINDOW 0 31 76 Left 2
WINDOW 3 31 40 Left 2
SYMATTR InstName R4
SYMATTR Value 15k
SYMBOL Misc\\EuropeanResistor 528 1760 R270
WINDOW 0 27 56 VTop 2
WINDOW 3 5 56 VBottom 2
SYMATTR InstName R5
SYMATTR Value 47k
SYMBOL Misc\\EuropeanResistor 112 1888 R180
WINDOW 0 31 76 Left 2
WINDOW 3 31 40 Left 2
SYMATTR InstName R3
SYMATTR Value 680
SYMBOL Optoclen 224 1840 R0
SYMATTR InstName X2
SYMBOL bidirect -288 1824 R0
WINDOW 3 29 -32 Left 2
SYMATTR Value D3
SYMATTR InstName X1
SYMBOL Optorele 336 656 M0
SYMATTR InstName X3
SYMBOL Misc\\EuropeanResistor 560 592 R180
WINDOW 0 31 76 Left 2
WINDOW 3 31 40 Left 2
SYMATTR InstName R7
SYMATTR Value 1k
SYMBOL Misc\\EuropeanResistor 800 752 R180
WINDOW 0 31 76 Left 2
WINDOW 3 31 40 Left 2
SYMATTR InstName R8
SYMATTR Value 1k
SYMBOL LED 768 528 R0
WINDOW 3 24 64 Invisible 2
WINDOW 123 24 92 Left 2
SYMATTR Value LXHL-BW02
SYMATTR Value2 Yellow
SYMATTR InstName D1
SYMATTR Description Diode
SYMATTR Type diode
SYMBOL Misc\\EuropeanResistor 64 624 R270
WINDOW 0 27 56 VTop 2
WINDOW 3 5 56 VBottom 2
SYMATTR InstName R9
SYMATTR Value 1k/5W
SYMBOL Optorele 336 1104 M0
SYMATTR InstName X4
SYMBOL Misc\\EuropeanResistor 560 1040 R180
WINDOW 0 31 76 Left 2
WINDOW 3 31 40 Left 2
SYMATTR InstName R10
SYMATTR Value 1k
SYMBOL Misc\\EuropeanResistor 800 1200 R180
WINDOW 0 31 76 Left 2
WINDOW 3 31 40 Left 2
SYMATTR InstName R11
SYMATTR Value 1k
SYMBOL LED 768 976 R0
WINDOW 3 24 64 Invisible 2
WINDOW 123 24 92 Left 2
SYMATTR Value LXHL-BW02
SYMATTR Value2 Red
SYMATTR InstName D2
SYMATTR Description Diode
SYMATTR Type diode
SYMBOL Misc\\EuropeanResistor 64 1072 R270
WINDOW 0 27 56 VTop 2
WINDOW 3 5 56 VBottom 2
SYMATTR InstName R12
SYMATTR Value 1k/5W
TEXT 912 1520 Left 2 ;Arduino 5V
TEXT 792 2064 Left 2 ;Arduino GND
TEXT 456 1520 Left 2 ;filters pulses approx. 30us
TEXT -800 1120 Left 2 ;ArduinoNano\nR1,R2     #326267 R17R8 1% T50 S M0207 MF\nC1,C4      #9196795 C100P 500V 5% COG SCH1206H016\nD3           #116881 NSU68 BS SM6T68CA DO214AA\nL1 L2       #70124924 FERRIT S 1000R/100 1A40 CH1206\nCRD 1-4  #807897 NK5.00 S S-562T SOD123FL\nOptocop  #70196151 OCPL S LTV-354T SOP4   \nR6            #018496 R220K 1% T200 S CH1206 MF\nC5            #052980 C470U 16V 20%ALEL C115080 3P5\nC2,C3       #550360 C1N 50V 5% COG SCH0603H008\nOptorele  #70120618 OCPL S AQY210KSX SO4\nR7,R8,R10,R11 - 1k 0603 or THT\nR4 15k  0603 or THT\nR5  47k 0603 or THT\n#909768 PTB02 5.00 1.50SC00BK1TR MKDSN  (terminal block)
TEXT -584 1888 Left 2 ;885 352 211 001 1\nWurth
TEXT 80 1944 Left 2 ;#70196151 OCPL S LTV-354T
TEXT -264 1824 Left 2 ;#116881\nNSU68 BS SM6T68CA
TEXT -264 1656 Left 2 ;#70124924
TEXT -272 2008 Left 2 ;#70124924
TEXT -808 1656 Left 2 ;PWM 5-60V
TEXT 600 864 Left 2 ;Arduino GND
TEXT 88 760 Left 2 ;#70120618 OCPL S AQY210KSX SO4
TEXT 600 1312 Left 2 ;Arduino GND
TEXT 88 1208 Left 2 ;#70120618 OCPL S AQY210KSX SO4
TEXT -808 488 Left 4 ;Evaluating PWM signals using Arduino NANO
